*Heading
** Job name: Thermal Model name: Heat
** Generated by: Abaqus/CAE Student Edition 2021
*Preprint, echo=NO, model=NO, history=NO, contact=NO
**
** PARTS
**
*Part, name=DAM
*Node
      1, -0.00100180507,   15.8691225
      2,           0.,           0.
      3,   25.7999992,           0.
      4,   25.7999992,           2.
      5,   23.4997063,           2.
      6,    22.005312,          2.5
      7,           5.,   17.2326546
      8,   3.10693121,   18.0016041
      9,   2.99987364,          15.
     10,   17.9998741,           2.
     11,   2.99987364,           2.
     12, -0.000876579434,   13.8854818
     13, -0.0007513538,   11.9018421
     14, -0.000626128167,   9.91820145
     15, -0.000500902534,   7.93456125
     16, -0.0003756769,   5.95092106
     17, -0.000250451267,   3.96728063
     18, -0.000125225633,   1.98364031
     19,   1.98461533,           0.
     20,   3.96923065,           0.
** ... 80 like lines cut
*Element, type=DC2D3
  1,  80,  71,  31
  2,  30,   4,   5
  3,   5,  29,  30
  4,  20,  11,  19
  5,  51,  27,  10
  6,  28,  10,  27
  7,  71,  10,  28
  8,  72,  36,  37
  9,  81,  77,   7
 10,  78,   8,  41
 11,  78,   1,  70
 12,  70,   1,  12
 13,  70,  64,  63
 14,  69,  19,  11
 15,  67,  14,  15
 16,  67,  65,  60
 17,  66,  65,  16
 18,  66,  58,  59
 19,  69,  58,  66
 20,  69,  17,  18
** ... 140 like lines cut
*Nset, nset=B20
   9,  10,  11,  42,  43,  44,  45,  46,  47,  48,  49,  50,  51,  52,  53,  54
  55,  56,  57,  58,  59,  60,  61,  62,  63,  84,  85,  86,  87,  88,  89,  90
  91,  92,  93,  94,  95,  96,  97,  98,  99, 100
*Elset, elset=B20, generate
 104,  160,    1
*Nset, nset=B30, generate
  1,  83,   1
*Elset, elset=B30, generate
   1,  103,    1
** Section: Section-1-B30
*Solid Section, elset=B30, material=B30
,
** Section: Section-2-B20
*Solid Section, elset=B20, material=B20
,
*End Part
**  
**
** ASSEMBLY
**
*Assembly, name=Assembly
**  
*Instance, name=DAM-1, part=DAM
*End Instance
**  
*Nset, nset=AIR, instance=DAM-1
  3,  4,  5,  6,  7,  8, 31, 32, 33, 34, 35, 36, 37, 38, 39, 40
*Elset, elset=AIR, instance=DAM-1
   2,   8,  30,  31,  37,  38,  39,  41,  79,  81,  82,  86,  90,  91, 102
*Nset, nset=WATER, instance=DAM-1
  1,  2,  8, 12, 13, 14, 15, 16, 17, 18, 41
*Elset, elset=WATER, instance=DAM-1
 10, 12, 15, 20, 21, 58, 62, 64, 66, 93
*End Assembly
** 
** MATERIALS
** 
*Material, name=B20
*Conductivity
 1.5,
*Material, name=B30
*Conductivity
 1.75,
** ----------------------------------------------------------------
** 
** STEP: Heat
** 
*Step, name=Heat, nlgeom=NO
*Heat Transfer, steady state, deltmx=0.
1., 1., 1e-05, 1., 
** 
** BOUNDARY CONDITIONS
** 
** Name: Temp-BC-1 Type: Temperature
*Boundary
AIR, 11, 11, 25.
** Name: Temp-BC-2 Type: Temperature
*Boundary
WATER, 11, 11, 5.
** 
** OUTPUT REQUESTS
** 
*Restart, write, frequency=0
** 
** FIELD OUTPUT: F-Output-1
** 
*Output, field
*Node Output
COORD, NT
*Element Output, directions=YES
EVOL, TEMP
*Output, history, frequency=0
*End Step
